CM AntGen v0.1.10-16-gff7f2dd (2025-05-04) - Copyright 2024-present Bernd Fix   >Y<
CM >>>>> Source: freq:Zr:Zi
CM Source: 435000000:50.000000:0.000000
CM >>>>> Wire: dia:material:conductivity:inductance
CM Wire: 0.002:CuL:5.960e+07:2.274e-07
CM >>>>> Ground: height:mode:type:nradl:epse:sig
CM Ground: 0.000:0:-1:0:0.000000:0.000000
CM >>>>> Param: k:param:tag
CM Param: 0.685000:120.000000:120-685
CM >>>>> Mode: model:generator:seed:optimizer
CM Mode: bend2d:v[ang=120]:1000:Gmax=matched
CM >>>>> Init: Gmax:Gmean:SD:Zr:Zi
CM Init: 5.507032:-0.987991:3.105133:89.416678:95.265461
CM >>>>> Result: Gmax:Gmean:SD:Zr:Zi
CM Result: 6.724663:-2.406796:4.538027:49.497220:0.970821
CM >>>>> Stats: Mthds:Steps:Sims:Elapsed
CM Stats: 1:380:4855:71
CE Model output
GW 1 1 -4.034931e-03 0.000000e+00 0.000000e+00 4.034931e-03 0.000000e+00 0.000000e+00 1.000000e-03
GW 2 1 4.034931e-03 0.000000e+00 0.000000e+00 1.208758e-02 5.268898e-04 0.000000e+00 1.000000e-03
GW 3 1 -1.208758e-02 5.268898e-04 0.000000e+00 -4.034931e-03 0.000000e+00 0.000000e+00 1.000000e-03
GW 4 1 1.208758e-02 5.268898e-04 0.000000e+00 2.001688e-02 2.026505e-03 0.000000e+00 1.000000e-03
GW 5 1 -2.001688e-02 2.026505e-03 0.000000e+00 -1.208758e-02 5.268898e-04 0.000000e+00 1.000000e-03
GW 6 1 2.001688e-02 2.026505e-03 0.000000e+00 2.768764e-02 4.532925e-03 0.000000e+00 1.000000e-03
GW 7 1 -2.768764e-02 4.532925e-03 0.000000e+00 -2.001688e-02 2.026505e-03 0.000000e+00 1.000000e-03
GW 8 1 2.768764e-02 4.532925e-03 0.000000e+00 3.458106e-02 8.728565e-03 0.000000e+00 1.000000e-03
GW 9 1 -3.458106e-02 8.728565e-03 0.000000e+00 -2.768764e-02 4.532925e-03 0.000000e+00 1.000000e-03
GW 10 1 3.458106e-02 8.728565e-03 0.000000e+00 4.115033e-02 1.341550e-02 0.000000e+00 1.000000e-03
GW 11 1 -4.115033e-02 1.341550e-02 0.000000e+00 -3.458106e-02 8.728565e-03 0.000000e+00 1.000000e-03
GW 12 1 4.115033e-02 1.341550e-02 0.000000e+00 4.727359e-02 1.867177e-02 0.000000e+00 1.000000e-03
GW 13 1 -4.727359e-02 1.867177e-02 0.000000e+00 -4.115033e-02 1.341550e-02 0.000000e+00 1.000000e-03
GW 14 1 4.727359e-02 1.867177e-02 0.000000e+00 5.326633e-02 2.407637e-02 0.000000e+00 1.000000e-03
GW 15 1 -5.326633e-02 2.407637e-02 0.000000e+00 -4.727359e-02 1.867177e-02 0.000000e+00 1.000000e-03
GW 16 1 5.326633e-02 2.407637e-02 0.000000e+00 5.893469e-02 2.982028e-02 0.000000e+00 1.000000e-03
GW 17 1 -5.893469e-02 2.982028e-02 0.000000e+00 -5.326633e-02 2.407637e-02 0.000000e+00 1.000000e-03
GW 18 1 5.893469e-02 2.982028e-02 0.000000e+00 6.435996e-02 3.579431e-02 0.000000e+00 1.000000e-03
GW 19 1 -6.435996e-02 3.579431e-02 0.000000e+00 -5.893469e-02 2.982028e-02 0.000000e+00 1.000000e-03
GW 20 1 6.435996e-02 3.579431e-02 0.000000e+00 6.995314e-02 4.161145e-02 0.000000e+00 1.000000e-03
GW 21 1 -6.995314e-02 4.161145e-02 0.000000e+00 -6.435996e-02 3.579431e-02 0.000000e+00 1.000000e-03
GW 22 1 6.995314e-02 4.161145e-02 0.000000e+00 7.557148e-02 4.740428e-02 0.000000e+00 1.000000e-03
GW 23 1 -7.557148e-02 4.740428e-02 0.000000e+00 -6.995314e-02 4.161145e-02 0.000000e+00 1.000000e-03
GW 24 1 7.557148e-02 4.740428e-02 0.000000e+00 8.054046e-02 5.376289e-02 0.000000e+00 1.000000e-03
GW 25 1 -8.054046e-02 5.376289e-02 0.000000e+00 -7.557148e-02 4.740428e-02 0.000000e+00 1.000000e-03
GW 26 1 8.054046e-02 5.376289e-02 0.000000e+00 8.570846e-02 5.996083e-02 0.000000e+00 1.000000e-03
GW 27 1 -8.570846e-02 5.996083e-02 0.000000e+00 -8.054046e-02 5.376289e-02 0.000000e+00 1.000000e-03
GW 28 1 8.570846e-02 5.996083e-02 0.000000e+00 8.988786e-02 6.686412e-02 0.000000e+00 1.000000e-03
GW 29 1 -8.988786e-02 6.686412e-02 0.000000e+00 -8.570846e-02 5.996083e-02 0.000000e+00 1.000000e-03
GW 30 1 8.988786e-02 6.686412e-02 0.000000e+00 9.413113e-02 7.372832e-02 0.000000e+00 1.000000e-03
GW 31 1 -9.413113e-02 7.372832e-02 0.000000e+00 -8.988786e-02 6.686412e-02 0.000000e+00 1.000000e-03
GW 32 1 9.413113e-02 7.372832e-02 0.000000e+00 9.884626e-02 8.027739e-02 0.000000e+00 1.000000e-03
GW 33 1 -9.884626e-02 8.027739e-02 0.000000e+00 -9.413113e-02 7.372832e-02 0.000000e+00 1.000000e-03
GW 34 1 9.884626e-02 8.027739e-02 0.000000e+00 1.043449e-01 8.618394e-02 0.000000e+00 1.000000e-03
GW 35 1 -1.043449e-01 8.618394e-02 0.000000e+00 -9.884626e-02 8.027739e-02 0.000000e+00 1.000000e-03
GW 36 1 1.043449e-01 8.618394e-02 0.000000e+00 1.096870e-01 9.223245e-02 0.000000e+00 1.000000e-03
GW 37 1 -1.096870e-01 9.223245e-02 0.000000e+00 -1.043449e-01 8.618394e-02 0.000000e+00 1.000000e-03
GW 38 1 1.096870e-01 9.223245e-02 0.000000e+00 1.152681e-01 9.806125e-02 0.000000e+00 1.000000e-03
GW 39 1 -1.152681e-01 9.806125e-02 0.000000e+00 -1.096870e-01 9.223245e-02 0.000000e+00 1.000000e-03
GW 40 1 1.152681e-01 9.806125e-02 0.000000e+00 1.207219e-01 1.040092e-01 0.000000e+00 1.000000e-03
GW 41 1 -1.207219e-01 1.040092e-01 0.000000e+00 -1.152681e-01 9.806125e-02 0.000000e+00 1.000000e-03
GW 42 1 1.207219e-01 1.040092e-01 0.000000e+00 1.257248e-01 1.103412e-01 0.000000e+00 1.000000e-03
GW 43 1 -1.257248e-01 1.103412e-01 0.000000e+00 -1.207219e-01 1.040092e-01 0.000000e+00 1.000000e-03
GW 44 1 1.257248e-01 1.103412e-01 0.000000e+00 1.311197e-01 1.163426e-01 0.000000e+00 1.000000e-03
GW 45 1 -1.311197e-01 1.163426e-01 0.000000e+00 -1.257248e-01 1.103412e-01 0.000000e+00 1.000000e-03
GW 46 1 1.311197e-01 1.163426e-01 0.000000e+00 1.367319e-01 1.221414e-01 0.000000e+00 1.000000e-03
GW 47 1 -1.367319e-01 1.221414e-01 0.000000e+00 -1.311197e-01 1.163426e-01 0.000000e+00 1.000000e-03
GW 48 1 1.367319e-01 1.221414e-01 0.000000e+00 1.425506e-01 1.277330e-01 0.000000e+00 1.000000e-03
GW 49 1 -1.425506e-01 1.277330e-01 0.000000e+00 -1.367319e-01 1.221414e-01 0.000000e+00 1.000000e-03
GW 50 1 1.425506e-01 1.277330e-01 0.000000e+00 1.482720e-01 1.334240e-01 0.000000e+00 1.000000e-03
GW 51 1 -1.482720e-01 1.334240e-01 0.000000e+00 -1.425506e-01 1.277330e-01 0.000000e+00 1.000000e-03
GW 52 1 1.482720e-01 1.334240e-01 0.000000e+00 1.535301e-01 1.395458e-01 0.000000e+00 1.000000e-03
GW 53 1 -1.535301e-01 1.395458e-01 0.000000e+00 -1.482720e-01 1.334240e-01 0.000000e+00 1.000000e-03
GW 54 1 1.535301e-01 1.395458e-01 0.000000e+00 1.588889e-01 1.455795e-01 0.000000e+00 1.000000e-03
GW 55 1 -1.588889e-01 1.455795e-01 0.000000e+00 -1.535301e-01 1.395458e-01 0.000000e+00 1.000000e-03
GW 56 1 1.588889e-01 1.455795e-01 0.000000e+00 1.643211e-01 1.515472e-01 0.000000e+00 1.000000e-03
GW 57 1 -1.643211e-01 1.515472e-01 0.000000e+00 -1.588889e-01 1.455795e-01 0.000000e+00 1.000000e-03
GW 58 1 1.643211e-01 1.515472e-01 0.000000e+00 1.689928e-01 1.581273e-01 0.000000e+00 1.000000e-03
GW 59 1 -1.689928e-01 1.581273e-01 0.000000e+00 -1.643211e-01 1.515472e-01 0.000000e+00 1.000000e-03
GW 60 1 1.689928e-01 1.581273e-01 0.000000e+00 1.737032e-01 1.646798e-01 0.000000e+00 1.000000e-03
GW 61 1 -1.737032e-01 1.646798e-01 0.000000e+00 -1.689928e-01 1.581273e-01 0.000000e+00 1.000000e-03
GW 62 1 1.737032e-01 1.646798e-01 0.000000e+00 1.783343e-01 1.712885e-01 0.000000e+00 1.000000e-03
GW 63 1 -1.783343e-01 1.712885e-01 0.000000e+00 -1.737032e-01 1.646798e-01 0.000000e+00 1.000000e-03
GW 64 1 1.783343e-01 1.712885e-01 0.000000e+00 1.832827e-01 1.776632e-01 0.000000e+00 1.000000e-03
GW 65 1 -1.832827e-01 1.776632e-01 0.000000e+00 -1.783343e-01 1.712885e-01 0.000000e+00 1.000000e-03
GW 66 1 1.832827e-01 1.776632e-01 0.000000e+00 1.884012e-01 1.839021e-01 0.000000e+00 1.000000e-03
GW 67 1 -1.884012e-01 1.839021e-01 0.000000e+00 -1.832827e-01 1.776632e-01 0.000000e+00 1.000000e-03
GW 68 1 1.884012e-01 1.839021e-01 0.000000e+00 1.938325e-01 1.898706e-01 0.000000e+00 1.000000e-03
GW 69 1 -1.938325e-01 1.898706e-01 0.000000e+00 -1.884012e-01 1.839021e-01 0.000000e+00 1.000000e-03
GW 70 1 1.938325e-01 1.898706e-01 0.000000e+00 2.005321e-01 1.943694e-01 0.000000e+00 1.000000e-03
GW 71 1 -2.005321e-01 1.943694e-01 0.000000e+00 -1.938325e-01 1.898706e-01 0.000000e+00 1.000000e-03
GW 72 1 2.005321e-01 1.943694e-01 0.000000e+00 2.081165e-01 1.971260e-01 0.000000e+00 1.000000e-03
GW 73 1 -2.081165e-01 1.971260e-01 0.000000e+00 -2.005321e-01 1.943694e-01 0.000000e+00 1.000000e-03
GW 74 1 2.081165e-01 1.971260e-01 0.000000e+00 2.161639e-01 1.977279e-01 0.000000e+00 1.000000e-03
GW 75 1 -2.161639e-01 1.977279e-01 0.000000e+00 -2.081165e-01 1.971260e-01 0.000000e+00 1.000000e-03
GW 76 1 2.161639e-01 1.977279e-01 0.000000e+00 2.240842e-01 1.961815e-01 0.000000e+00 1.000000e-03
GW 77 1 -2.240842e-01 1.961815e-01 0.000000e+00 -2.161639e-01 1.977279e-01 0.000000e+00 1.000000e-03
GW 78 1 2.240842e-01 1.961815e-01 0.000000e+00 2.313145e-01 1.925976e-01 0.000000e+00 1.000000e-03
GW 79 1 -2.313145e-01 1.925976e-01 0.000000e+00 -2.240842e-01 1.961815e-01 0.000000e+00 1.000000e-03
GW 80 1 2.313145e-01 1.925976e-01 0.000000e+00 2.375559e-01 1.874821e-01 0.000000e+00 1.000000e-03
GW 81 1 -2.375559e-01 1.874821e-01 0.000000e+00 -2.313145e-01 1.925976e-01 0.000000e+00 1.000000e-03
GW 82 1 2.375559e-01 1.874821e-01 0.000000e+00 2.421383e-01 1.808395e-01 0.000000e+00 1.000000e-03
GW 83 1 -2.421383e-01 1.808395e-01 0.000000e+00 -2.375559e-01 1.874821e-01 0.000000e+00 1.000000e-03
GW 84 1 2.421383e-01 1.808395e-01 0.000000e+00 2.473219e-01 1.746546e-01 0.000000e+00 1.000000e-03
GW 85 1 -2.473219e-01 1.746546e-01 0.000000e+00 -2.421383e-01 1.808395e-01 0.000000e+00 1.000000e-03
GW 86 1 2.473219e-01 1.746546e-01 0.000000e+00 2.540240e-01 1.701596e-01 0.000000e+00 1.000000e-03
GW 87 1 -2.540240e-01 1.701596e-01 0.000000e+00 -2.473219e-01 1.746546e-01 0.000000e+00 1.000000e-03
GW 88 1 2.540240e-01 1.701596e-01 0.000000e+00 2.616139e-01 1.674182e-01 0.000000e+00 1.000000e-03
GW 89 1 -2.616139e-01 1.674182e-01 0.000000e+00 -2.540240e-01 1.701596e-01 0.000000e+00 1.000000e-03
GW 90 1 2.616139e-01 1.674182e-01 0.000000e+00 2.693533e-01 1.651324e-01 0.000000e+00 1.000000e-03
GW 91 1 -2.693533e-01 1.651324e-01 0.000000e+00 -2.616139e-01 1.674182e-01 0.000000e+00 1.000000e-03
GW 92 1 2.693533e-01 1.651324e-01 0.000000e+00 2.773575e-01 1.641047e-01 0.000000e+00 1.000000e-03
GW 93 1 -2.773575e-01 1.641047e-01 0.000000e+00 -2.693533e-01 1.651324e-01 0.000000e+00 1.000000e-03
GW 94 1 2.773575e-01 1.641047e-01 0.000000e+00 2.853347e-01 1.653236e-01 0.000000e+00 1.000000e-03
GW 95 1 -2.853347e-01 1.653236e-01 0.000000e+00 -2.773575e-01 1.641047e-01 0.000000e+00 1.000000e-03
GW 96 1 2.853347e-01 1.653236e-01 0.000000e+00 2.930426e-01 1.677135e-01 0.000000e+00 1.000000e-03
GW 97 1 -2.930426e-01 1.677135e-01 0.000000e+00 -2.853347e-01 1.653236e-01 0.000000e+00 1.000000e-03
GW 98 1 2.930426e-01 1.677135e-01 0.000000e+00 2.998760e-01 1.720062e-01 0.000000e+00 1.000000e-03
GW 99 1 -2.998760e-01 1.720062e-01 0.000000e+00 -2.930426e-01 1.677135e-01 0.000000e+00 1.000000e-03
GW 100 1 2.998760e-01 1.720062e-01 0.000000e+00 3.052426e-01 1.780330e-01 0.000000e+00 1.000000e-03
GW 101 1 -3.052426e-01 1.780330e-01 0.000000e+00 -2.998760e-01 1.720062e-01 0.000000e+00 1.000000e-03
GW 102 1 3.052426e-01 1.780330e-01 0.000000e+00 3.086971e-01 1.853261e-01 0.000000e+00 1.000000e-03
GW 103 1 -3.086971e-01 1.853261e-01 0.000000e+00 -3.052426e-01 1.780330e-01 0.000000e+00 1.000000e-03
GW 104 1 3.086971e-01 1.853261e-01 0.000000e+00 3.099625e-01 1.932961e-01 0.000000e+00 1.000000e-03
GW 105 1 -3.099625e-01 1.932961e-01 0.000000e+00 -3.086971e-01 1.853261e-01 0.000000e+00 1.000000e-03
GW 106 1 3.099625e-01 1.932961e-01 0.000000e+00 3.089535e-01 2.013027e-01 0.000000e+00 1.000000e-03
GW 107 1 -3.089535e-01 2.013027e-01 0.000000e+00 -3.099625e-01 1.932961e-01 0.000000e+00 1.000000e-03
GW 108 1 3.089535e-01 2.013027e-01 0.000000e+00 3.057317e-01 2.087015e-01 0.000000e+00 1.000000e-03
GW 109 1 -3.057317e-01 2.087015e-01 0.000000e+00 -3.089535e-01 2.013027e-01 0.000000e+00 1.000000e-03
GW 110 1 3.057317e-01 2.087015e-01 0.000000e+00 3.005641e-01 2.148997e-01 0.000000e+00 1.000000e-03
GW 111 1 -3.005641e-01 2.148997e-01 0.000000e+00 -3.057317e-01 2.087015e-01 0.000000e+00 1.000000e-03
GW 112 1 3.005641e-01 2.148997e-01 0.000000e+00 2.938760e-01 2.194155e-01 0.000000e+00 1.000000e-03
GW 113 1 -2.938760e-01 2.194155e-01 0.000000e+00 -3.005641e-01 2.148997e-01 0.000000e+00 1.000000e-03
GW 114 1 2.938760e-01 2.194155e-01 0.000000e+00 2.861996e-01 2.219046e-01 0.000000e+00 1.000000e-03
GW 115 1 -2.861996e-01 2.219046e-01 0.000000e+00 -2.938760e-01 2.194155e-01 0.000000e+00 1.000000e-03
GW 116 1 2.861996e-01 2.219046e-01 0.000000e+00 2.781334e-01 2.221493e-01 0.000000e+00 1.000000e-03
GW 117 1 -2.781334e-01 2.221493e-01 0.000000e+00 -2.861996e-01 2.219046e-01 0.000000e+00 1.000000e-03
GE 0
LD 2 0 0 0 0 2.274000e-07 0
LD 5 0 0 0 5.960000e+07
EX 0 0 1 0 1.000000
FR 0 101 0 0 430.000000 0.100000
RP 0 37 73 1000 0 0 5 5 0 0
EN
